test/test_files/input_tests/raw_generator_step_up.raw
   0,   100.00, 30, 0, 1,  60.00
GridDyn RAW generator step-up transformer regression
Generator RT/XT should create an internal bus without losing generator ownership
   301,'NORTH       ', 765.0000,3,     0.000,     0.000,   3,   5,1.00000,   0.0000,   3
 0 / END OF BUS DATA, BEGIN LOAD DATA
 0 / END OF LOAD DATA, BEGIN GENERATOR DATA
   301,'1 ',   996.883,   299.544,   700.000,  -650.000,1.00000,     0,  1067.000,   0.01090,   0.23000,   0.01400,   0.12600,1.02500,1,   98.0,  1010.000,   320.000,   1,0.1118,   2,0.2184,   3,0.0893,   4,0.5805
 0 / END OF GENERATOR DATA, BEGIN BRANCH DATA
 0 / END OF BRANCH DATA, BEGIN TRANSFORMER DATA
 0 / END OF TRANSFORMER DATA, BEGIN AREA DATA
 0 / END OF AREA DATA, BEGIN TWO-TERMINAL DC DATA
 0 / END OF TWO-TERMINAL DC DATA, BEGIN VSC DC LINE DATA
 0 / END OF VSC DC LINE DATA, BEGIN SWITCHED SHUNT DATA
 0 / END OF SWITCHED SHUNT DATA, BEGIN IMPEDANCE CORRECTION DATA
 0 / END OF IMPEDANCE CORRECTION DATA, BEGIN MULTI-TERMINAL DC DATA
 0 / END OF MULTI-TERMINAL DC DATA, BEGIN MULTI-SECTION LINE DATA
 0 / END OF MULTI-SECTION LINE DATA, BEGIN ZONE DATA
 0 / END OF ZONE DATA, BEGIN INTER-AREA TRANSFER DATA
 0 / END OF INTER-AREA TRANSFER DATA, BEGIN OWNER DATA
 0 / END OF OWNER DATA, BEGIN FACTS DEVICE DATA
 0 / END OF FACTS DEVICE DATA
Q
